%chk=ground_state_opt.chk
%mem=128GB
%nprocshared=4

# opt B3LYP/6-311g* scrf=(solvent=water) int=ultrafine Nosymm

PN ground state geometry optimization

0 1
O          0.94821        0.03052        0.05499
C          4.36541       -1.16473        0.06727
C          2.96079       -1.23198        0.06119
C          5.11014       -2.36735        0.06983
C          5.03904        0.07211        0.07002
C          2.29702       -2.46300        0.05754
C          4.43037       -3.59685        0.06594
C          2.17387        0.02558        0.05767
C          6.51181       -2.30510        0.07496
C          4.26738        1.31820        0.06441
C          6.43659        0.11078        0.07563
C          3.03447       -3.64424        0.05943
C          2.92894        1.30214        0.05734
C          7.17002       -1.07407        0.07801
H          1.20971       -2.50017        0.05272
H          4.98701       -4.53226        0.06752
H          7.10471       -3.21739        0.07639
H          4.80592        2.26009        0.06486
H          6.96515        1.06096        0.07724
H          2.52285       -4.60347        0.05563
H          2.33979        2.21126        0.05141
H          8.25679       -1.03925        0.08141


