%chk=ground_state_opt.chk
%mem=128GB
%nprocshared=4

# opt B3LYP/6-311g* scrf=(solvent=water) int=ultrafine Nosymm

2-nitroanisole ground state geometry optimization

0 1
O          1.05176       -0.27203        0.11542
O          2.96228       -1.92219       -1.38097
O          1.57982       -3.63604       -1.31674
N          1.83624       -2.43324       -1.46613
C          0.36492       -0.48821       -1.04704
C          0.73373       -1.57213       -1.85259
C         -0.69358        0.31693       -1.48337
C          0.04225       -1.89352       -3.03018
C         -1.38940        0.00874       -2.65889
C         -1.02945       -1.09838       -3.42547
C          0.36702        0.46944        1.12171
H         -1.00341        1.19848       -0.93027
H          0.32998       -2.75471       -3.62931
H         -2.21972        0.63860       -2.97238
H         -1.58346       -1.33663       -4.33093
H          0.94522        0.39559        2.04797
H          0.30372        1.52859        0.85334
H         -0.62723        0.05154        1.31396


