%chk=ground_state_opt.chk
%mem=128GB
%nprocshared=4

# opt B3LYP/6-311g* scrf=(solvent=water) int=ultrafine Nosymm

4-nitrophenol ground state geometry optimization

0 1
O          2.25094       -0.00040        0.01407
O         -3.90322        1.21018       -0.04122
O         -3.95900       -0.98306       -0.04130
N         -3.35450        0.09922       -0.03299
C         -1.88677        0.06030       -0.01344
C         -1.16139        1.25942       -0.00469
C         -1.22322       -1.17609       -0.00635
C          0.88831       -0.01378        0.00935
C          0.23379        1.21503        0.00725
C          0.17413       -1.20974        0.00504
H         -1.66063        2.22579       -0.00838
H         -1.77629       -2.11334       -0.01053
H          0.81078        2.13649        0.01268
H          0.68337       -2.16913        0.01014
H          2.57871       -0.91467       -0.01066


