%chk=PN.chk
%mem=128GB
%nprocshared=4

# opt(MaxCycles=500, CalcFC) M062X/6-311g* TDA=(triplet,root=1) scrf=(solvent=water) int=ultrafine Nosymm

PN triplet state calculation

0 3
O          1.10291       -0.05408        0.02649
C          4.52011       -1.24934        0.03876
C          3.11550       -1.31658        0.03269
C          5.19374       -0.01249        0.04151
C          5.26484       -2.45196        0.04132
C          2.32857       -0.05903        0.02916
C          4.42208        1.23360        0.03590
C          2.45172       -2.54760        0.02903
C          6.59129        0.02618        0.04713
C          4.58506       -3.68146        0.03744
C          6.66651       -2.38971        0.04645
C          3.08364        1.21754        0.02884
C          3.18917       -3.72885        0.03093
C          7.32472       -1.15867        0.04951
H          4.96061        2.17549        0.03635
H          1.36441       -2.58477        0.02421
H          7.11985        0.97636        0.04873
H          5.14171       -4.61686        0.03902
H          7.25941       -3.30199        0.04789
H          2.49449        2.12666        0.02291
H          2.67755       -4.68808        0.02712
H          8.41149       -1.12386        0.05290


