%chk=jug.chk
%mem=128GB
%nprocshared=4

# opt M062X/6-311g* TDA=(triplet,root=1) scrf=(solvent=water) int=ultrafine Nosymm

Juglone triplet state calculation

0 3
O          2.84874       -0.54614       -0.09603
O          1.06731       -2.45400        0.00307
O         -2.95435        1.04914        0.01438
C          0.44055       -0.18524       -0.00097
C         -0.61083        0.73202        0.04065
C          1.75993        0.28268       -0.04186
C          0.15563       -1.63094       -0.00356
C         -0.34490        2.10758        0.07819
C         -2.01179        0.26795        0.02160
C          2.02471        1.65094       -0.03341
C          0.97276        2.56456        0.03855
C         -1.25198       -2.06826       -0.01388
C         -2.25523       -1.18793       -0.00899
H         -1.16220        2.82602        0.13133
H          3.05241        2.00382       -0.08098
H          1.18098        3.63206        0.05654
H         -1.42774       -3.13773       -0.03163
H         -3.29307       -1.50078       -0.02771
H          2.53398       -1.47790       -0.06726


