%chk=ground_state_opt.chk
%mem=128GB
%nprocshared=4

# opt B3LYP/6-311g* scrf=(solvent=water) int=ultrafine Nosymm

3-nitroanisole ground state geometry optimization

0 1
O          1.06516        0.17061       -0.03358
O          1.44703       -3.33329       -3.68437
O         -0.26208       -2.93030       -4.99902
N          0.43572       -2.69155       -4.00298
C          0.42012       -0.22115       -1.17438
C          0.03614       -1.57300       -3.14054
C          0.80097       -1.27701       -2.00146
C         -0.71355        0.53277       -1.49769
C         -1.10048       -0.82000       -3.46106
C         -1.47215        0.23787       -2.63316
C          2.19020       -0.60530        0.36550
H          1.67954       -1.87309       -1.77752
H         -1.01005        1.35896       -0.85383
H         -1.69912       -1.04269       -4.34166
H         -2.35175        0.83313       -2.86750
H          2.56778       -0.19311        1.30567
H          1.90631       -1.64728        0.54889
H          2.99384       -0.53923       -0.37556


